Material: oedes / test_materials / pedot_pss
Optical constants. Sara Jäckle, Martin Liebhaber, Clemens Gersmann, Mathias Mews, Klaus Jäger, Silke Christiansen, Klaus Lips, Potential of PEDOT:PSS as a hole selective front contact for silicon heterojunction solar cells
Comments: PH1000, from Figure S2, "ordinary"
wavelength (um)	n
0.2000	1.6733
0.2161	1.6870
0.2269	1.6898
0.2382	1.6804
0.2504	1.6680
0.2618	1.6539
0.2732	1.6411
0.2846	1.6288
0.2960	1.6180
0.3074	1.6069
0.3188	1.5968
0.3303	1.5891
0.3417	1.5808
0.3531	1.5738
0.3645	1.5676
0.3759	1.5606
0.3873	1.5550
0.3988	1.5531
0.4102	1.5438
0.4216	1.5376
0.4330	1.5324
0.4445	1.5261
0.4559	1.5199
0.4673	1.5147
0.4787	1.5102
0.4901	1.5051
0.5015	1.5012
0.5130	1.4962
0.5244	1.4918
0.5358	1.4874
0.5472	1.4831
0.5586	1.4788
0.5701	1.4741
0.5815	1.4701
0.5929	1.4655
0.6043	1.4612
0.6157	1.4569
0.6272	1.4527
0.6386	1.4485
0.6500	1.4436
0.6614	1.4398
0.6728	1.4352
0.6843	1.4309
0.6957	1.4263
0.7071	1.4222
0.7185	1.4177
0.7299	1.4131
0.7414	1.4091
0.7528	1.4042
0.7642	1.4000
0.7756	1.3956
0.7870	1.3913
0.7984	1.3867
0.8099	1.3821
0.8213	1.3782
0.8327	1.3737
0.8441	1.3695
0.8555	1.3650
0.8670	1.3608
0.8784	1.3564
0.8898	1.3525
0.9012	1.3480
0.9126	1.3440
0.9241	1.3394
0.9355	1.3354
0.9469	1.3314
0.9583	1.3274
0.9697	1.3230
0.9812	1.3197
0.9926	1.3151
1.0040	1.3114
1.0154	1.3072
1.0268	1.3036
1.0383	1.3001
1.0497	1.2963
1.0611	1.2923
1.0725	1.2889
1.0839	1.2856
1.0954	1.2818
1.1068	1.2781
1.1182	1.2749
1.1296	1.2720
1.1410	1.2690
1.1525	1.2657
1.1639	1.2622
1.1753	1.2596
1.1867	1.2569
1.1976	1.2551
1.2000	1.2551
wavelength (um)	k
0.2031	0.2837
0.2105	0.2583
0.2221	0.2068
0.2286	0.1805
0.2369	0.1497
0.2473	0.1185
0.2587	0.0904
0.2701	0.0690
0.2815	0.0528
0.2929	0.0416
0.3044	0.0326
0.3158	0.0269
0.3272	0.0223
0.3386	0.0188
0.3500	0.0161
0.3615	0.0160
0.3729	0.0195
0.3853	0.0184
0.4067	0.0268
0.4185	0.0304
0.4302	0.0334
0.4414	0.0405
0.4529	0.0438
0.4643	0.0469
0.4757	0.0507
0.4871	0.0544
0.4986	0.0581
0.5100	0.0622
0.5214	0.0665
0.5328	0.0705
0.5443	0.0752
0.5557	0.0801
0.5671	0.0848
0.5785	0.0899
0.5900	0.0951
0.6014	0.1005
0.6128	0.1061
0.6242	0.1119
0.6357	0.1177
0.6471	0.1237
0.6585	0.1304
0.6699	0.1365
0.6814	0.1433
0.6928	0.1503
0.7042	0.1574
0.7156	0.1645
0.7271	0.1723
0.7385	0.1799
0.7499	0.1879
0.7614	0.1960
0.7728	0.2043
0.7842	0.2128
0.7956	0.2217
0.8071	0.2303
0.8185	0.2398
0.8299	0.2487
0.8414	0.2586
0.8528	0.2683
0.8642	0.2781
0.8756	0.2884
0.8871	0.2986
0.8985	0.3096
0.9099	0.3201
0.9214	0.3313
0.9328	0.3424
0.9442	0.3536
0.9556	0.3653
0.9671	0.3773
0.9785	0.3890
0.9899	0.4014
1.0014	0.4140
1.0128	0.4264
1.0242	0.4393
1.0357	0.4518
1.0471	0.4653
1.0585	0.4788
1.0699	0.4919
1.0814	0.5055
1.0928	0.5194
1.1042	0.5337
1.1157	0.5478
1.1271	0.5619
1.1385	0.5764
1.1500	0.5914
1.1614	0.6060
1.1728	0.6209
1.1843	0.6364
1.1931	0.6476
1.2000	0.6476
